Version 4
SHEET 1 880 680
WIRE 448 16 192 16
WIRE 192 48 192 16
WIRE -96 64 -208 64
WIRE 160 64 -96 64
WIRE 160 96 80 96
WIRE -208 112 -208 64
WIRE -96 112 -96 64
WIRE 80 112 80 96
WIRE 480 144 336 144
WIRE 624 144 560 144
WIRE 160 192 80 192
WIRE 448 208 448 96
WIRE 448 208 272 208
WIRE 544 208 448 208
WIRE -208 224 -208 192
WIRE -96 224 -96 192
WIRE -96 224 -208 224
WIRE 32 224 -96 224
WIRE 160 224 32 224
WIRE 448 240 448 208
WIRE 544 240 544 208
WIRE 624 240 624 208
WIRE 192 320 192 240
WIRE 448 320 192 320
FLAG 544 240 0
FLAG 32 304 0
FLAG 624 240 0
SYMBOL OpAmps\\AD8221 192 144 R0
SYMATTR InstName U1
SYMBOL voltage 448 0 R0
WINDOW 123 0 0 Left 0
WINDOW 39 0 0 Left 0
SYMATTR InstName V1
SYMATTR Value 9
SYMBOL voltage 448 224 R0
WINDOW 123 0 0 Left 0
WINDOW 39 0 0 Left 0
SYMATTR InstName V2
SYMATTR Value 9
SYMBOL res -112 96 R0
SYMATTR InstName R2
SYMATTR Value 0.1
SYMBOL res 16 208 R0
SYMATTR InstName R1
SYMATTR Value 1K
SYMBOL current -208 192 R180
WINDOW 0 24 80 Left 2
WINDOW 3 24 0 Left 2
WINDOW 123 0 0 Left 0
WINDOW 39 0 0 Left 0
SYMATTR InstName I1
SYMATTR Value 1m
SYMBOL res 64 96 R0
SYMATTR InstName R3
SYMATTR Value 499
SYMBOL res 576 128 R90
WINDOW 0 0 56 VBottom 2
WINDOW 3 32 56 VTop 2
SYMATTR InstName R4
SYMATTR Value 1K
SYMBOL cap 608 144 R0
SYMATTR InstName C1
SYMATTR Value 1.5µ
